data/data/Three-wire-phase-to-neutral/network_4/Feeder_3/LineCode.txt
! Subset of available target linecodes, which are closest to the original ones in terms of positive sequence impedance
! -------------------------------------------------------------------------------------------------------------------------------------------------------------------------------------------------
! original name: BS 5467 1997 table 10 16 (50 Hz)
New LineCode.LC1 nphases=3 Units=km
~ Rmatrix=(2.303594 1.151967 1.1516279999999999 | 1.151967 2.303933 1.151967 | 1.151628 1.151967 2.3035940000000004)
~ Xmatrix=(0.16001100000000013 0.10397500000000004 0.05604100000000001 | 0.10397500000000004 0.20795099999999989 0.10397199999999995 | 0.05604100000000001 0.10397199999999995 0.16000599999999998)
~ Cmatrix=(0.0 0.0 0.0 | 0.0 0.0 0.0 | 0.0 0.0 0.0)

! original name: BS 5467 1997 table 10 70 (50 Hz)
New LineCode.LC4 nphases=3 Units=km
~ Rmatrix=(0.5397660000000001 0.27105900000000005 0.26870800000000006 | 0.27105900000000005 0.5421180000368696 0.2710590000368696 | 0.26870800000000006 0.2710590000368696 0.5397670000368696)
~ Xmatrix=(0.134922 0.09144699999999994 0.043484999999999996 | 0.09144699999999994 0.18289999996466888 0.09144699996466887 | 0.043484999999999996 0.09144699996466887 0.13493799996466893)
~ Cmatrix=(0.0 0.0 0.0 | 0.0 0.0 0.0 | 0.0 0.0 0.0)

! original name: BS 6480 1988 table 17 Cu 16 (50 Hz)
New LineCode.LC6 nphases=3 Units=km
~ Rmatrix=(2.305147 1.1534 1.151747 | 1.1534 2.3068009999999997 1.1534 | 1.151747 1.1534 2.305148)
~ Xmatrix=(0.16893999999999987 0.11444699999999997 0.05449899999999985 | 0.11444699999999997 0.22889099999999996 0.114448 | 0.05449899999999985 0.114448 0.1689449999999999)
~ Cmatrix=(0.0 0.0 0.0 | 0.0 0.0 0.0 | 0.0 0.0 0.0)

! original name: Waveform 4-core 185 IEC 60287 (50 Hz)
New LineCode.LC7 nphases=3 Units=km
~ Rmatrix=(0.338488 0.169244 0.169244 | 0.169244 0.338488 0.169244 | 0.169244 0.169244 0.338488)
~ Xmatrix=(0.12402800000000003 0.084086 0.03994200000000003 | 0.084086 0.168172 0.084086 | 0.03994200000000003 0.084086 0.12402800000000003)
~ Cmatrix=(0.0 0.0 0.0 | 0.0 0.0 0.0 | 0.0 0.0 0.0)
! -------------------------------------------------------------------------------------------------------------------------------------------------------------------------------------------------